*HEADING
cubit(wellboreCoarse.inp): 08/23/2022: 15:10:27
version: 15.1
**
********************************** P A R T S **********************************
*PART, NAME=Part-Default
**
********************************** N O D E S **********************************
*NODE, NSET=ALLNODES
       1,    1.300000e+01,    0.000000e+00,    6.000000e+01
       2,    1.236373e+01,    4.017221e+00,    6.000000e+01
       3,    1.274416e+01,    4.140828e+00,    6.000000e+01
       4,    1.340000e+01,    0.000000e+00,    6.000000e+01
       5,    1.300000e+01,    0.000000e+00,    5.000000e+01
       6,    1.236373e+01,    4.017221e+00,    5.000000e+01
       7,    1.274416e+01,    4.140828e+00,    5.000000e+01
       8,    1.340000e+01,    0.000000e+00,    5.000000e+01
       9,    1.274416e+01,   -4.140828e+00,    6.000000e+01
      10,    1.236373e+01,   -4.017221e+00,    6.000000e+01
      11,    1.274416e+01,   -4.140828e+00,    5.000000e+01
      12,    1.236373e+01,   -4.017221e+00,    5.000000e+01
      13,    1.084083e+01,   -7.876322e+00,    6.000000e+01
      14,    1.051722e+01,   -7.641208e+00,    6.000000e+01
      15,    1.084083e+01,   -7.876322e+00,    5.000000e+01
      16,    1.051722e+01,   -7.641208e+00,    5.000000e+01
      17,    1.051722e+01,    7.641208e+00,    6.000000e+01
      18,    1.084083e+01,    7.876322e+00,    6.000000e+01
      19,    1.051722e+01,    7.641208e+00,    5.000000e+01
      20,    1.084083e+01,    7.876322e+00,    5.000000e+01
** ... 7460 like lines cut
**
********************************** E L E M E N T S ****************************
*ELEMENT, TYPE=C3D8R, ELSET=EB1
       1,       1,       2,       3,       4,       5,       6,       7,       8
       2,       1,       4,       9,      10,       5,       8,      11,      12
       3,      10,       9,      13,      14,      12,      11,      15,      16
       4,       3,       2,      17,      18,       7,       6,      19,      20
       5,      18,      17,      21,      22,      20,      19,      23,      24
       6,      22,      21,      25,      26,      24,      23,      27,      28
       7,      14,      13,      29,      30,      16,      15,      31,      32
       8,      30,      29,      33,      34,      32,      31,      35,      36
       9,      34,      33,      37,      38,      36,      35,      39,      40
      10,      38,      37,      41,      42,      40,      39,      43,      44
      11,      26,      25,      45,      46,      28,      27,      47,      48
      12,      46,      45,      49,      50,      48,      47,      51,      52
      13,      50,      49,      53,      54,      52,      51,      55,      56
      14,      54,      53,      57,      58,      56,      55,      59,      60
      15,      58,      57,      61,      62,      60,      59,      63,      64
      16,      62,      61,      65,      66,      64,      63,      67,      68
      17,      66,      65,      69,      70,      68,      67,      71,      72
      18,      70,      69,      73,      74,      72,      71,      75,      76
      19,      77,      74,      73,      78,      79,      76,      75,      80
      20,      78,      42,      41,      77,      80,      44,      43,      79
** ... 180 like lines cut
*ELEMENT, TYPE=C3D8R, ELSET=EB2
     201,     364,     365,     441,     442,     404,     405,     443,     444
     202,     442,     441,     445,     446,     444,     443,     447,     448
     203,     446,     445,     449,     450,     448,     447,     451,     452
     204,     450,     449,     453,     454,     452,     451,     455,     456
     205,     454,     453,     457,     458,     456,     455,     459,     460
     206,     458,     457,     461,     462,     460,     459,     463,     464
     207,     462,     461,     465,     466,     464,     463,     467,     468
     208,     466,     465,     469,     470,     468,     467,     471,     472
     209,     470,     469,     473,     474,     472,     471,     475,     476
     210,     474,     473,     477,     478,     476,     475,     479,     480
     211,     478,     477,     481,     482,     480,     479,     483,     484
     212,     482,     481,     485,     486,     484,     483,     487,     488
     213,     486,     485,     489,     490,     488,     487,     491,     492
     214,     490,     489,     493,     494,     492,     491,     495,     496
     215,     494,     493,     497,     498,     496,     495,     499,     500
     216,     498,     497,     501,     502,     500,     499,     503,     504
     217,     502,     501,     505,     506,     504,     503,     507,     508
     218,     506,     505,     509,     510,     508,     507,     511,     512
     219,     510,     509,     513,     514,     512,     511,     515,     516
     220,     514,     513,     517,     518,     516,     515,     519,     520
** ... 6500 like lines cut
**
********************************** S I D E S E T S **********************************
*ELSET, ELSET=SS1_S5
     360,     380,     400,     420,     440,     760,     780,     800,     820,     840,
    1160,    1180,    1200,    1220,    1240,    1560,    1580,    1600,    1620,    1640,
    1960,    1980,    2000,    2020,    2040,    2360,    2380,    2400,    2420,    2440,
    2760,    2780,    2800,    2820,    2840,    3160,    3180,    3200,    3220,    3240,
    3560,    3580,    3600,    3620,    3640,    3960,    3980,    4000,    4020,    4040,
    4421,    4441,    4461,    4481,    4501,    4821,    4841,    4861,    4881,    4901,
    5221,    5241,    5261,    5281,    5301,    5681,    5701,    5721,    5741,    5761,
    6081,    6101,    6121,    6141,    6161,    6481,    6501,    6521,    6541,    6561
*SURFACE, NAME=SS1
SS1_S5, S5
*ELSET, ELSET=SS2_S5
     220,     240,     560,     580,     600,     620,     640,     960,     980,    1000,
    1020,    1040,    1360,    1380,    1400,    1420,    1440,    1760,    1780,    1800,
    1820,    1840,    2160,    2180,    2200,    2220,    2240,    2560,    2580,    2600,
    2620,    2640,    2960,    2980,    3000,    3020,    3040,    3360,    3380,    3400,
    3420,    3440,    3760,    3780,    3800,    3820,    3840,    4160,    4180,    4200,
    4261,    4281,    4301,    4621,    4641,    4661,    4681,    4701,    5021,    5041,
    5061,    5081,    5101,    5421,    5441,    5521,    5541,    5561,    5881,    5901,
    5921,    5941,    5961,    6281,    6301,    6321,    6341,    6361,    6681,    6701
*SURFACE, NAME=SS2
SS2_S5, S5
*ELSET, ELSET=SS3_S5
     260,     280,     300,     320,     340,     660,     680,     700,     720,     740,
    1060,    1080,    1100,    1120,    1140,    1460,    1480,    1500,    1520,    1540,
    1860,    1880,    1900,    1920,    1940,    2260,    2280,    2300,    2320,    2340,
    2660,    2680,    2700,    2720,    2740,    3060,    3080,    3100,    3120,    3140,
    3460,    3480,    3500,    3520,    3540,    3860,    3880,    3900,    3920,    3940,
    4521,    4541,    4561,    4581,    4601,    4921,    4941,    4961,    4981,    5001,
    5321,    5341,    5361,    5381,    5401,    5781,    5801,    5821,    5841,    5861,
    6181,    6201,    6221,    6241,    6261,    6581,    6601,    6621,    6641,    6661
*SURFACE, NAME=SS3
SS3_S5, S5
*ELSET, ELSET=SS4_S5
     460,     480,     500,     520,     540,     860,     880,     900,     920,     940,
    1260,    1280,    1300,    1320,    1340,    1660,    1680,    1700,    1720,    1740,
    2060,    2080,    2100,    2120,    2140,    2460,    2480,    2500,    2520,    2540,
    2860,    2880,    2900,    2920,    2940,    3260,    3280,    3300,    3320,    3340,
    3660,    3680,    3700,    3720,    3740,    4060,    4080,    4100,    4120,    4140,
    4321,    4341,    4361,    4381,    4401,    4721,    4741,    4761,    4781,    4801,
    5121,    5141,    5161,    5181,    5201,    5581,    5601,    5621,    5641,    5661,
    5981,    6001,    6021,    6041,    6061,    6381,    6401,    6421,    6441,    6461
*SURFACE, NAME=SS4
SS4_S5, S5
*ELSET, ELSET=SS5_S2
    4201,    4202,    4203,    4204,    4205,    4206,    4207,    4208,    4209,    4210,
    4211,    4212,    4213,    4214,    4215,    4216,    4217,    4218,    4219,    4220,
    5061,    5062,    5063,    5064,    5065,    5066,    5067,    5068,    5069,    5070,
    5071,    5072,    5073,    5074,    5075,    5076,    5077,    5078,    5079,    5080,
    5081,    5082,    5083,    5084,    5085,    5086,    5087,    5088,    5089,    5090,
    5091,    5092,    5093,    5094,    5095,    5096,    5097,    5098,    5099,    5100,
    5101,    5102,    5103,    5104,    5105,    5106,    5107,    5108,    5109,    5110,
    5111,    5112,    5113,    5114,    5115,    5116,    5117,    5118,    5119,    5120,
    5121,    5122,    5123,    5124,    5125,    5126,    5127,    5128,    5129,    5130,
    5131,    5132,    5133,    5134,    5135,    5136,    5137,    5138,    5139,    5140,
    5141,    5142,    5143,    5144,    5145,    5146,    5147,    5148,    5149,    5150,
    5151,    5152,    5153,    5154,    5155,    5156,    5157,    5158,    5159,    5160,
    5161,    5162,    5163,    5164,    5165,    5166,    5167,    5168,    5169,    5170,
    5171,    5172,    5173,    5174,    5175,    5176,    5177,    5178,    5179,    5180,
    5181,    5182,    5183,    5184,    5185,    5186,    5187,    5188,    5189,    5190,
    5191,    5192,    5193,    5194,    5195,    5196,    5197,    5198,    5199,    5200,
    5201,    5202,    5203,    5204,    5205,    5206,    5207,    5208,    5209,    5210,
    5211,    5212,    5213,    5214,    5215,    5216,    5217,    5218,    5219,    5220,
    5221,    5222,    5223,    5224,    5225,    5226,    5227,    5228,    5229,    5230,
    5231,    5232,    5233,    5234,    5235,    5236,    5237,    5238,    5239,    5240,
** ... 22 like lines cut
*SURFACE, NAME=SS5
SS5_S2, S2
*ELSET, ELSET=SS6_S2
    5461,    5462,    5463,    5464,    5465,    5466,    5467,    5468,    5469,    5470,
    5471,    5472,    5473,    5474,    5475,    5476,    5477,    5478,    5479,    5480,
    5521,    5522,    5523,    5524,    5525,    5526,    5527,    5528,    5529,    5530,
    5531,    5532,    5533,    5534,    5535,    5536,    5537,    5538,    5539,    5540,
    5541,    5542,    5543,    5544,    5545,    5546,    5547,    5548,    5549,    5550,
    5551,    5552,    5553,    5554,    5555,    5556,    5557,    5558,    5559,    5560,
    5561,    5562,    5563,    5564,    5565,    5566,    5567,    5568,    5569,    5570,
    5571,    5572,    5573,    5574,    5575,    5576,    5577,    5578,    5579,    5580,
    5581,    5582,    5583,    5584,    5585,    5586,    5587,    5588,    5589,    5590,
    5591,    5592,    5593,    5594,    5595,    5596,    5597,    5598,    5599,    5600,
    5601,    5602,    5603,    5604,    5605,    5606,    5607,    5608,    5609,    5610,
    5611,    5612,    5613,    5614,    5615,    5616,    5617,    5618,    5619,    5620,
    5621,    5622,    5623,    5624,    5625,    5626,    5627,    5628,    5629,    5630,
    5631,    5632,    5633,    5634,    5635,    5636,    5637,    5638,    5639,    5640,
    5641,    5642,    5643,    5644,    5645,    5646,    5647,    5648,    5649,    5650,
    5651,    5652,    5653,    5654,    5655,    5656,    5657,    5658,    5659,    5660,
    5661,    5662,    5663,    5664,    5665,    5666,    5667,    5668,    5669,    5670,
    5671,    5672,    5673,    5674,    5675,    5676,    5677,    5678,    5679,    5680,
    5681,    5682,    5683,    5684,    5685,    5686,    5687,    5688,    5689,    5690,
    5691,    5692,    5693,    5694,    5695,    5696,    5697,    5698,    5699,    5700,
** ... 22 like lines cut
*SURFACE, NAME=SS6
SS6_S2, S2
**
********************************** P R O P E R T I E S ************************
*SOLID SECTION, ELSET=EB1, MATERIAL=Default-Steel
*SOLID SECTION, ELSET=EB2, MATERIAL=Default-Steel
**
*END PART
**
**
**
********************************** E N D   P A R T S **********************************
**
**
********************************** A S S E M B L Y ************************************
**
*ASSEMBLY, NAME=ASSEMBLY1
**
*INSTANCE, NAME=Part-Default_1, PART=Part-Default
*END INSTANCE
**
*END ASSEMBLY
**
**
**
*MATERIAL, NAME = Default-Steel
*ELASTIC, TYPE=ISOTROPIC
2.068000e+05, 2.900000e-01
*DENSITY
7.000000e-06
*CONDUCTIVITY,TYPE=ISO
4.500000e-02
*SPECIFIC HEAT
5.000000e+02
**
**
************************************** H I S T O R Y *************************************
**
*PREPRINT
**
**************************************** S T E P 1 ***************************************
*STEP,INC=100,NAME=Default Set
**
*STATIC
1, 1, 1e-05, 1
**
**
**
**
*END STEP
